REMARK  4 active torsions:
REMARK  status: ('A' for Active; 'I' for Inactive)
REMARK    1  A    between atoms: O3_3  and  C8_8 
REMARK    2  A    between atoms: O4_4  and  C9_9 
REMARK    3  A    between atoms: C5_5  and  C11_11 
REMARK    4  A    between atoms: C11_11  and  C13_13 
ROOT
ATOM      1  O1  RES d   1       2.954  -0.107  -0.477  0.00  0.00    -0.320 OA
ATOM      2  O2  RES d   1       2.314  -2.306  -0.110  0.00  0.00    -0.323 OA
ATOM      3  C5  RES d   1      -1.002  -0.775   0.512  0.00  0.00    -0.016 A 
ATOM      4  C6  RES d   1       1.619  -0.161  -0.146  0.00  0.00     0.141 A 
ATOM      5  C7  RES d   1       1.234  -1.469   0.075  0.00  0.00     0.108 A 
ATOM      6  C8  RES d   1      -0.614   0.550   0.287  0.00  0.00     0.111 A 
ATOM      7  C9  RES d   1       0.722   0.885  -0.035  0.00  0.00     0.138 A 
ATOM      8  C10 RES d   1      -0.054  -1.808   0.410  0.00  0.00     0.050 A 
ATOM      9  C12 RES d   1       3.434  -1.457  -0.377  0.00  0.00     0.352 A 
ENDROOT
BRANCH   3  10
ATOM     10  C11 RES d   1      -2.437  -1.107   0.873  0.00  0.00     0.068 C 
BRANCH  10  11
ATOM     11  C13 RES d   1      -3.310  -1.365  -0.329  0.00  0.00    -0.032 C 
ATOM     12  C16 RES d   1      -4.460  -0.767  -0.573  0.00  0.00     0.007 C 
ENDBRANCH  10  11
ENDBRANCH   3  10
BRANCH   6  13
ATOM     13  O3  RES d   1      -1.531   1.559   0.468  0.00  0.00    -0.352 OA
ATOM     14  C14 RES d   1      -1.958   2.230  -0.725  0.00  0.00     0.210 C 
ENDBRANCH   6  13
BRANCH   7  15
ATOM     15  O4  RES d   1       1.059   2.190  -0.269  0.00  0.00    -0.351 OA
ATOM     16  C15 RES d   1       2.061   2.737   0.598  0.00  0.00     0.210 C 
ENDBRANCH   7  15
TORSDOF 4
