MODEL 1
REMARK VINA RESULT:    -5.445      0.000      0.000
REMARK INTER + INTRA:         217.826
REMARK INTER:                  -6.718
REMARK INTRA:                 224.545
REMARK UNBOUND:               224.545
REMARK SMILES C=CCc1cc2c(c(OC)c1OC)OCO2
REMARK SMILES IDX 14 1 16 2 4 3 7 4 6 5 11 6 8 7 5 8 15 9 9 10 10 11 12 12
REMARK SMILES IDX 13 13 3 14 2 15 1 16
REMARK H PARENT
REMARK Flexibility Score: inf
ROOT
ATOM      1  O   UNL     1       4.134  26.078   8.515  1.00  0.00    -0.450 OA
ATOM      2  O   UNL     1       3.742  26.923   6.390  1.00  0.00    -0.453 OA
ATOM      3  C   UNL     1       5.707  23.966   5.330  1.00  0.00     0.006 A 
ATOM      4  C   UNL     1       4.731  25.274   7.569  1.00  0.00     0.211 A 
ATOM      5  C   UNL     1       4.501  25.775   6.303  1.00  0.00     0.170 A 
ATOM      6  C   UNL     1       5.939  23.457   6.612  1.00  0.00     0.168 A 
ATOM      7  C   UNL     1       5.462  24.118   7.768  1.00  0.00     0.207 A 
ATOM      8  C   UNL     1       4.976  25.157   5.172  1.00  0.00     0.058 A 
ATOM      9  C   UNL     1       3.570  27.181   7.787  1.00  0.00     0.468 C 
ENDROOT
BRANCH   7  10
ATOM     10  O   UNL     1       5.691  23.578   9.004  1.00  0.00    -0.490 OA
ATOM     11  C   UNL     1       6.786  24.145   9.735  1.00  0.00     0.278 C 
ENDBRANCH   7  10
BRANCH   6  12
ATOM     12  O   UNL     1       6.723  22.336   6.758  1.00  0.00    -0.492 OA
ATOM     13  C   UNL     1       6.034  21.149   7.172  1.00  0.00     0.278 C 
ENDBRANCH   6  12
BRANCH   3  14
ATOM     14  C   UNL     1       6.243  23.248   4.107  1.00  0.00     0.066 C 
BRANCH  14  15
ATOM     15  C   UNL     1       6.092  24.043   2.834  1.00  0.00    -0.030 C 
ATOM     16  C   UNL     1       6.354  23.592   1.623  1.00  0.00     0.004 C 
ENDBRANCH  14  15
ENDBRANCH   3  14
TORSDOF 4
BEGIN_RES UNK     0
REMARK  28 active torsions:
REMARK  status: ('A' for Active; 'I' for Inactive)
REMARK    1  A    between atoms: O1   and  C40 
REMARK    2  A    between atoms: O2   and  C5  
REMARK    3  A    between atoms: O3   and  C4  
REMARK    4  A    between atoms: O4   and  C11 
REMARK    5  A    between atoms: O5   and  C10 
REMARK    6  A    between atoms: O6   and  C17 
REMARK    7  A    between atoms: O7   and  C16 
REMARK    8  A    between atoms: O8   and  C23 
REMARK    9  A    between atoms: O9   and  C22 
REMARK   10  A    between atoms: O10  and  C29 
REMARK   11  A    between atoms: O11  and  C28 
REMARK   12  A    between atoms: O12  and  C35 
REMARK   13  A    between atoms: O13  and  C34 
REMARK   14  A    between atoms: O14  and  C41 
REMARK   15  A    between atoms: O29  and  C31 
REMARK   16  A    between atoms: O30  and  C37 
REMARK   17  A    between atoms: O31  and  C1  
REMARK   18  A    between atoms: O33  and  C7  
REMARK   19  A    between atoms: O35  and  C13 
REMARK   20  A    between atoms: O37  and  C19 
REMARK   21  A    between atoms: O38  and  C25 
REMARK   22  A    between atoms: C1   and  C2  
REMARK   23  A    between atoms: C7   and  C8  
REMARK   24  A    between atoms: C13  and  C14 
REMARK   25  A    between atoms: C19  and  C20 
REMARK   26  A    between atoms: C25  and  C26 
REMARK   27  A    between atoms: C31  and  C32 
REMARK   28  A    between atoms: C37  and  C38 
ROOT
HETATM    1  O1  UNK     0       3.887  29.858   5.432  1.00  4.97    -0.390 OA
ENDROOT
BRANCH   1   2
HETATM    2  C40 UNK     0       5.006  29.567   4.612  1.00  3.87     0.183 C 
HETATM    3  C39 UNK     0       5.016  30.454   3.354  1.00  5.29     0.187 C 
HETATM    4  O16 UNK     0       3.846  30.142   2.592  1.00  4.82    -0.348 OA
HETATM    5  C38 UNK     0       6.312  30.190   2.543  1.00  4.42     0.180 C 
HETATM    6  C6  UNK     0       3.080  31.209   2.093  1.00  4.58     0.292 C 
HETATM    7  O23 UNK     0       3.218  31.336   0.702  1.00  5.45    -0.348 OA
HETATM    8  C5  UNK     0       1.607  30.973   2.461  1.00  5.13     0.204 C 
HETATM    9  C2  UNK     0       2.797  30.192  -0.058  1.00  4.58     0.180 C 
HETATM   10  C3  UNK     0       1.309  29.843   0.206  1.00  3.24     0.187 C 
HETATM   11  O17 UNK     0       0.972  28.582  -0.387  1.00  5.45    -0.348 OA
HETATM   12  C4  UNK     0       1.054  29.734   1.725  1.00  3.47     0.183 C 
HETATM   13  C12 UNK     0      -0.014  28.570  -1.386  1.00  4.26     0.292 C 
HETATM   14  O24 UNK     0       0.559  28.546  -2.671  1.00  4.74    -0.348 OA
HETATM   15  C11 UNK     0      -0.907  27.337  -1.176  1.00  3.32     0.204 C 
HETATM   16  C8  UNK     0       1.355  27.385  -2.965  1.00  2.92     0.180 C 
HETATM   17  C9  UNK     0       0.550  26.070  -2.802  1.00  3.24     0.187 C 
HETATM   18  C10 UNK     0      -0.113  26.035  -1.412  1.00  3.16     0.183 C 
HETATM   19  O18 UNK     0       1.408  24.930  -2.915  1.00  4.26    -0.348 OA
HETATM   20  C18 UNK     0       1.396  24.219  -4.125  1.00  6.00     0.292 C 
HETATM   21  O25 UNK     0       2.641  24.291  -4.770  1.00  7.26    -0.348 OA
HETATM   22  C17 UNK     0       1.027  22.758  -3.833  1.00  5.53     0.204 C 
HETATM   23  C14 UNK     0       3.741  23.736  -4.032  1.00  7.42     0.180 C 
HETATM   24  C15 UNK     0       3.504  22.238  -3.701  1.00  6.16     0.187 C 
HETATM   25  C16 UNK     0       2.135  22.071  -3.007  1.00  3.63     0.183 C 
HETATM   26  O19 UNK     0       4.518  21.727  -2.827  1.00  4.66    -0.348 OA
HETATM   27  C24 UNK     0       5.430  20.793  -3.352  1.00  5.61     0.292 C 
HETATM   28  O26 UNK     0       6.653  21.400  -3.693  1.00  4.26    -0.348 OA
HETATM   29  C23 UNK     0       5.651  19.679  -2.316  1.00  2.84     0.204 C 
HETATM   30  C20 UNK     0       7.369  21.985  -2.592  1.00 10.11     0.180 C 
HETATM   31  C21 UNK     0       7.685  20.941  -1.492  1.00  3.95     0.187 C 
HETATM   32  O20 UNK     0       8.234  21.573  -0.330  1.00  5.84    -0.348 OA
HETATM   33  C22 UNK     0       6.393  20.216  -1.072  1.00  4.03     0.183 C 
HETATM   34  C30 UNK     0       9.597  21.377  -0.054  1.00  6.95     0.292 C 
HETATM   35  O27 UNK     0      10.339  22.555  -0.259  1.00  5.92    -0.348 OA
HETATM   36  C29 UNK     0       9.747  20.904   1.400  1.00  7.19     0.204 C 
HETATM   37  C26 UNK     0       9.943  23.671   0.557  1.00  5.21     0.180 C 
HETATM   38  C27 UNK     0      10.084  23.328   2.061  1.00  3.95     0.187 C 
HETATM   39  O21 UNK     0       9.510  24.361   2.869  1.00  5.21    -0.348 OA
HETATM   40  C28 UNK     0       9.341  22.018   2.387  1.00  3.47     0.183 C 
HETATM   41  C36 UNK     0      10.349  25.037   3.768  1.00  3.87     0.292 C 
HETATM   42  O28 UNK     0      10.703  26.308   3.280  1.00  4.58    -0.348 OA
HETATM   43  C35 UNK     0       9.626  25.166   5.118  1.00  6.00     0.204 C 
HETATM   44  C32 UNK     0       9.596  27.202   3.069  1.00  4.11     0.180 C 
HETATM   45  C33 UNK     0       8.797  27.442   4.377  1.00  3.40     0.187 C 
HETATM   46  O15 UNK     0       7.592  28.169   4.114  1.00  4.11    -0.348 OA
HETATM   47  C34 UNK     0       8.399  26.096   5.006  1.00  3.16     0.183 C 
HETATM   48  C42 UNK     0       7.544  29.521   4.489  1.00  5.21     0.292 C 
HETATM   49  O22 UNK     0       7.480  30.361   3.362  1.00  5.45    -0.348 OA
HETATM   50  C41 UNK     0       6.323  29.740   5.400  1.00  4.82     0.204 C 
BRANCH   9  51
HETATM   51  C1  UNK     0       3.131  30.469  -1.538  1.00  7.97     0.198 C 
BRANCH  51  52
HETATM   52  O31 UNK     0       3.559  29.301  -2.212  1.00 16.11    -0.398 OA
HETATM   53 1HO3 UNK     0       2.788  28.760  -2.401  1.00 16.11     0.209 HD
ENDBRANCH  51  52
ENDBRANCH   9  51
BRANCH  16  54
HETATM   54  C7  UNK     0       1.997  27.578  -4.356  1.00  4.90     0.198 C 
BRANCH  54  55
HETATM   55  O33 UNK     0       3.353  27.174  -4.382  1.00  5.13    -0.398 OA
HETATM   56 3HO3 UNK     0       3.574  26.893  -5.273  1.00  5.13     0.209 HD
ENDBRANCH  54  55
ENDBRANCH  16  54
BRANCH  18  57
HETATM   57  O5  UNK     0      -0.950  24.901  -1.272  1.00  4.90    -0.390 OA
HETATM   58  HO5 UNK     0      -1.815  25.204  -0.984  1.00  4.90     0.210 HD
ENDBRANCH  18  57
BRANCH  23  59
HETATM   59  C13 UNK     0       5.030  24.024  -4.828  1.00 12.87     0.198 C 
BRANCH  59  60
HETATM   60  O35 UNK     0       5.430  25.378  -4.738  1.00 13.98    -0.398 OA
HETATM   61 5HO3 UNK     0       5.491  25.622  -3.810  1.00 13.98     0.209 HD
ENDBRANCH  59  60
ENDBRANCH  23  59
BRANCH  25  62
HETATM   62  O7  UNK     0       1.831  20.702  -2.802  1.00  4.74    -0.390 OA
HETATM   63  HO7 UNK     0       1.514  20.599  -1.900  1.00  4.74     0.210 HD
ENDBRANCH  25  62
BRANCH  30  64
HETATM   64  C19 UNK     0       8.611  22.700  -3.163  1.00  5.53     0.198 C 
BRANCH  64  65
HETATM   65  O37 UNK     0       8.840  23.947  -2.536  1.00 11.69    -0.398 OA
HETATM   66 7HO3 UNK     0       9.178  23.785  -1.652  1.00 11.69     0.209 HD
ENDBRANCH  64  65
ENDBRANCH  30  64
BRANCH  37  67
HETATM   67  C25 UNK     0      10.811  24.880   0.155  1.00  8.76     0.198 C 
BRANCH  67  68
HETATM   68  O38 UNK     0      10.031  25.877  -0.473  1.00 18.55    -0.398 OA
HETATM   69 8HO3 UNK     0       9.176  25.496  -0.693  1.00 18.55     0.209 HD
ENDBRANCH  67  68
ENDBRANCH  37  67
BRANCH  44  70
HETATM   70  C31 UNK     0      10.137  28.486   2.407  1.00  4.34     0.198 C 
BRANCH  70  71
HETATM   71  O29 UNK     0      10.675  28.233   1.124  1.00  4.97    -0.398 OA
HETATM   72 9HO2 UNK     0      11.125  27.385   1.146  1.00  4.97     0.209 HD
ENDBRANCH  70  71
ENDBRANCH  44  70
BRANCH  50  73
HETATM   73  O14 UNK     0       6.373  28.929   6.560  1.00  5.05    -0.388 OA
HETATM   74 4HO1 UNK     0       7.281  28.926   6.875  1.00  5.05     0.210 HD
ENDBRANCH  50  73
BRANCH  47  75
HETATM   75  O13 UNK     0       7.802  26.287   6.278  1.00  6.40    -0.390 OA
HETATM   76 3HO1 UNK     0       7.343  27.133   6.276  1.00  6.40     0.210 HD
ENDBRANCH  47  75
BRANCH  43  77
HETATM   77  O12 UNK     0       9.302  23.901   5.666  1.00  4.90    -0.388 OA
HETATM   78 2HO1 UNK     0       8.714  24.049   6.413  1.00  4.90     0.210 HD
ENDBRANCH  43  77
BRANCH  40  79
HETATM   79  O11 UNK     0       9.578  21.613   3.724  1.00  5.92    -0.390 OA
HETATM   80 1HO1 UNK     0       8.974  20.893   3.938  1.00  5.92     0.210 HD
ENDBRANCH  40  79
BRANCH  36  81
HETATM   81  O10 UNK     0       9.055  19.690   1.636  1.00  5.84    -0.388 OA
HETATM   82 0HO1 UNK     0       9.711  19.006   1.794  1.00  5.84     0.210 HD
ENDBRANCH  36  81
BRANCH  33  83
HETATM   83  O9  UNK     0       6.683  19.168  -0.162  1.00  4.74    -0.390 OA
HETATM   84  HO9 UNK     0       6.431  18.331  -0.569  1.00  4.74     0.210 HD
ENDBRANCH  33  83
BRANCH  29  85
HETATM   85  O8  UNK     0       4.435  19.017  -2.015  1.00  4.18    -0.388 OA
HETATM   86  HO8 UNK     0       4.612  18.342  -1.354  1.00  4.18     0.210 HD
ENDBRANCH  29  85
BRANCH  22  87
HETATM   87  O6  UNK     0      -0.258  22.660  -3.244  1.00  3.87    -0.388 OA
HETATM   88  HO6 UNK     0      -0.678  23.526  -3.279  1.00  3.87     0.210 HD
ENDBRANCH  22  87
BRANCH  15  89
HETATM   89  O4  UNK     0      -1.556  27.378   0.082  1.00  5.05    -0.388 OA
HETATM   90  HO4 UNK     0      -1.013  26.907   0.720  1.00  5.05     0.210 HD
ENDBRANCH  15  89
BRANCH  12  91
HETATM   91  O3  UNK     0      -0.325  29.559   1.999  1.00  3.95    -0.390 OA
HETATM   92  HO3 UNK     0      -0.451  29.643   2.948  1.00  3.95     0.210 HD
ENDBRANCH  12  91
BRANCH   8  93
HETATM   93  O2  UNK     0       1.423  30.901   3.866  1.00  5.92    -0.388 OA
HETATM   94  HO2 UNK     0       2.273  31.041   4.293  1.00  5.92     0.210 HD
ENDBRANCH   8  93
BRANCH   5  95
HETATM   95  C37 UNK     0       6.480  31.078   1.293  1.00  7.90     0.198 C 
BRANCH  95  96
HETATM   96  O30 UNK     0       5.768  32.294   1.406  1.00 12.55    -0.398 OA
HETATM   97 0HO3 UNK     0       4.926  32.113   1.832  1.00 12.55     0.209 HD
ENDBRANCH  95  96
ENDBRANCH   5  95
ENDBRANCH   1   2
END_RES UNK     0
ENDMDL
MODEL 2
REMARK VINA RESULT:    -4.372      0.747      1.672
REMARK INTER + INTRA:         219.150
REMARK INTER:                  -5.731
REMARK INTRA:                 224.881
REMARK UNBOUND:               224.545
REMARK SMILES C=CCc1cc2c(c(OC)c1OC)OCO2
REMARK SMILES IDX 14 1 16 2 4 3 7 4 6 5 11 6 8 7 5 8 15 9 9 10 10 11 12 12
REMARK SMILES IDX 13 13 3 14 2 15 1 16
REMARK H PARENT
REMARK Flexibility Score: inf
ROOT
ATOM      1  O   UNL     1       7.614  21.986   9.438  1.00  0.00    -0.450 OA
ATOM      2  O   UNL     1       7.802  20.655   7.547  1.00  0.00    -0.453 OA
ATOM      3  C   UNL     1       5.871  23.394   5.967  1.00  0.00     0.006 A 
ATOM      4  C   UNL     1       6.974  22.583   8.376  1.00  0.00     0.211 A 
ATOM      5  C   UNL     1       7.082  21.793   7.247  1.00  0.00     0.170 A 
ATOM      6  C   UNL     1       5.762  24.196   7.108  1.00  0.00     0.168 A 
ATOM      7  C   UNL     1       6.305  23.792   8.350  1.00  0.00     0.207 A 
ATOM      8  C   UNL     1       6.541  22.161   6.040  1.00  0.00     0.058 A 
ATOM      9  C   UNL     1       8.076  20.716   8.950  1.00  0.00     0.468 C 
ENDROOT
BRANCH   7  10
ATOM     10  O   UNL     1       6.197  24.613   9.439  1.00  0.00    -0.490 OA
ATOM     11  C   UNL     1       7.327  25.458   9.693  1.00  0.00     0.278 C 
ENDBRANCH   7  10
BRANCH   6  12
ATOM     12  O   UNL     1       5.035  25.362   7.043  1.00  0.00    -0.492 OA
ATOM     13  C   UNL     1       3.650  25.249   7.396  1.00  0.00     0.278 C 
ENDBRANCH   6  12
BRANCH   3  14
ATOM     14  C   UNL     1       5.264  23.841   4.650  1.00  0.00     0.066 C 
BRANCH  14  15
ATOM     15  C   UNL     1       6.268  23.922   3.528  1.00  0.00    -0.030 C 
ATOM     16  C   UNL     1       6.077  23.468   2.305  1.00  0.00     0.004 C 
ENDBRANCH  14  15
ENDBRANCH   3  14
TORSDOF 4
BEGIN_RES UNK     0
REMARK  28 active torsions:
REMARK  status: ('A' for Active; 'I' for Inactive)
REMARK    1  A    between atoms: O1   and  C40 
REMARK    2  A    between atoms: O2   and  C5  
REMARK    3  A    between atoms: O3   and  C4  
REMARK    4  A    between atoms: O4   and  C11 
REMARK    5  A    between atoms: O5   and  C10 
REMARK    6  A    between atoms: O6   and  C17 
REMARK    7  A    between atoms: O7   and  C16 
REMARK    8  A    between atoms: O8   and  C23 
REMARK    9  A    between atoms: O9   and  C22 
REMARK   10  A    between atoms: O10  and  C29 
REMARK   11  A    between atoms: O11  and  C28 
REMARK   12  A    between atoms: O12  and  C35 
REMARK   13  A    between atoms: O13  and  C34 
REMARK   14  A    between atoms: O14  and  C41 
REMARK   15  A    between atoms: O29  and  C31 
REMARK   16  A    between atoms: O30  and  C37 
REMARK   17  A    between atoms: O31  and  C1  
REMARK   18  A    between atoms: O33  and  C7  
REMARK   19  A    between atoms: O35  and  C13 
REMARK   20  A    between atoms: O37  and  C19 
REMARK   21  A    between atoms: O38  and  C25 
REMARK   22  A    between atoms: C1   and  C2  
REMARK   23  A    between atoms: C7   and  C8  
REMARK   24  A    between atoms: C13  and  C14 
REMARK   25  A    between atoms: C19  and  C20 
REMARK   26  A    between atoms: C25  and  C26 
REMARK   27  A    between atoms: C31  and  C32 
REMARK   28  A    between atoms: C37  and  C38 
ROOT
HETATM    1  O1  UNK     0       3.887  29.858   5.432  1.00  4.97    -0.390 OA
ENDROOT
BRANCH   1   2
HETATM    2  C40 UNK     0       5.006  29.567   4.612  1.00  3.87     0.183 C 
HETATM    3  C39 UNK     0       5.016  30.454   3.354  1.00  5.29     0.187 C 
HETATM    4  O16 UNK     0       3.846  30.142   2.592  1.00  4.82    -0.348 OA
HETATM    5  C38 UNK     0       6.312  30.190   2.543  1.00  4.42     0.180 C 
HETATM    6  C6  UNK     0       3.080  31.209   2.093  1.00  4.58     0.292 C 
HETATM    7  O23 UNK     0       3.218  31.336   0.702  1.00  5.45    -0.348 OA
HETATM    8  C5  UNK     0       1.607  30.973   2.461  1.00  5.13     0.204 C 
HETATM    9  C2  UNK     0       2.797  30.192  -0.058  1.00  4.58     0.180 C 
HETATM   10  C3  UNK     0       1.309  29.843   0.206  1.00  3.24     0.187 C 
HETATM   11  O17 UNK     0       0.972  28.582  -0.387  1.00  5.45    -0.348 OA
HETATM   12  C4  UNK     0       1.054  29.734   1.725  1.00  3.47     0.183 C 
HETATM   13  C12 UNK     0      -0.014  28.570  -1.386  1.00  4.26     0.292 C 
HETATM   14  O24 UNK     0       0.559  28.547  -2.671  1.00  4.74    -0.348 OA
HETATM   15  C11 UNK     0      -0.907  27.337  -1.176  1.00  3.32     0.204 C 
HETATM   16  C8  UNK     0       1.355  27.385  -2.965  1.00  2.92     0.180 C 
HETATM   17  C9  UNK     0       0.550  26.070  -2.802  1.00  3.24     0.187 C 
HETATM   18  C10 UNK     0      -0.113  26.035  -1.412  1.00  3.16     0.183 C 
HETATM   19  O18 UNK     0       1.408  24.930  -2.915  1.00  4.26    -0.348 OA
HETATM   20  C18 UNK     0       1.396  24.219  -4.125  1.00  6.00     0.292 C 
HETATM   21  O25 UNK     0       2.641  24.291  -4.770  1.00  7.26    -0.348 OA
HETATM   22  C17 UNK     0       1.027  22.758  -3.833  1.00  5.53     0.204 C 
HETATM   23  C14 UNK     0       3.741  23.736  -4.032  1.00  7.42     0.180 C 
HETATM   24  C15 UNK     0       3.504  22.238  -3.702  1.00  6.16     0.187 C 
HETATM   25  C16 UNK     0       2.135  22.071  -3.007  1.00  3.63     0.183 C 
HETATM   26  O19 UNK     0       4.518  21.727  -2.827  1.00  4.66    -0.348 OA
HETATM   27  C24 UNK     0       5.430  20.794  -3.352  1.00  5.61     0.292 C 
HETATM   28  O26 UNK     0       6.653  21.400  -3.693  1.00  4.26    -0.348 OA
HETATM   29  C23 UNK     0       5.651  19.680  -2.316  1.00  2.84     0.204 C 
HETATM   30  C20 UNK     0       7.369  21.985  -2.592  1.00 10.11     0.180 C 
HETATM   31  C21 UNK     0       7.685  20.941  -1.492  1.00  3.95     0.187 C 
HETATM   32  O20 UNK     0       8.234  21.573  -0.330  1.00  5.84    -0.348 OA
HETATM   33  C22 UNK     0       6.393  20.216  -1.072  1.00  4.03     0.183 C 
HETATM   34  C30 UNK     0       9.597  21.377  -0.054  1.00  6.95     0.292 C 
HETATM   35  O27 UNK     0      10.339  22.555  -0.259  1.00  5.92    -0.348 OA
HETATM   36  C29 UNK     0       9.747  20.903   1.400  1.00  7.19     0.204 C 
HETATM   37  C26 UNK     0       9.943  23.671   0.557  1.00  5.21     0.180 C 
HETATM   38  C27 UNK     0      10.084  23.328   2.061  1.00  3.95     0.187 C 
HETATM   39  O21 UNK     0       9.510  24.361   2.869  1.00  5.21    -0.348 OA
HETATM   40  C28 UNK     0       9.341  22.018   2.387  1.00  3.47     0.183 C 
HETATM   41  C36 UNK     0      10.349  25.037   3.768  1.00  3.87     0.292 C 
HETATM   42  O28 UNK     0      10.703  26.308   3.280  1.00  4.58    -0.348 OA
HETATM   43  C35 UNK     0       9.626  25.166   5.118  1.00  6.00     0.204 C 
HETATM   44  C32 UNK     0       9.596  27.202   3.069  1.00  4.11     0.180 C 
HETATM   45  C33 UNK     0       8.797  27.442   4.377  1.00  3.40     0.187 C 
HETATM   46  O15 UNK     0       7.592  28.169   4.114  1.00  4.11    -0.348 OA
HETATM   47  C34 UNK     0       8.399  26.096   5.006  1.00  3.16     0.183 C 
HETATM   48  C42 UNK     0       7.544  29.521   4.489  1.00  5.21     0.292 C 
HETATM   49  O22 UNK     0       7.480  30.361   3.362  1.00  5.45    -0.348 OA
HETATM   50  C41 UNK     0       6.323  29.740   5.400  1.00  4.82     0.204 C 
BRANCH   9  51
HETATM   51  C1  UNK     0       3.131  30.469  -1.538  1.00  7.97     0.198 C 
BRANCH  51  52
HETATM   52  O31 UNK     0       3.827  31.690  -1.705  1.00 16.11    -0.398 OA
HETATM   53 1HO3 UNK     0       4.403  31.816  -0.947  1.00 16.11     0.209 HD
ENDBRANCH  51  52
ENDBRANCH   9  51
BRANCH  16  54
HETATM   54  C7  UNK     0       1.997  27.578  -4.356  1.00  4.90     0.198 C 
BRANCH  54  55
HETATM   55  O33 UNK     0       3.343  27.143  -4.390  1.00  5.13    -0.398 OA
HETATM   56 3HO3 UNK     0       3.588  26.830  -3.516  1.00  5.13     0.209 HD
ENDBRANCH  54  55
ENDBRANCH  16  54
BRANCH  18  57
HETATM   57  O5  UNK     0      -0.950  24.901  -1.272  1.00  4.90    -0.390 OA
HETATM   58  HO5 UNK     0      -0.705  24.265  -1.950  1.00  4.90     0.210 HD
ENDBRANCH  18  57
BRANCH  23  59
HETATM   59  C13 UNK     0       5.030  24.024  -4.828  1.00 12.87     0.198 C 
BRANCH  59  60
HETATM   60  O35 UNK     0       5.687  25.197  -4.387  1.00 13.98    -0.398 OA
HETATM   61 5HO3 UNK     0       5.092  25.690  -3.816  1.00 13.98     0.209 HD
ENDBRANCH  59  60
ENDBRANCH  23  59
BRANCH  25  62
HETATM   62  O7  UNK     0       1.831  20.702  -2.802  1.00  4.74    -0.390 OA
HETATM   63  HO7 UNK     0       2.173  20.446  -1.941  1.00  4.74     0.210 HD
ENDBRANCH  25  62
BRANCH  30  64
HETATM   64  C19 UNK     0       8.610  22.700  -3.163  1.00  5.53     0.198 C 
BRANCH  64  65
HETATM   65  O37 UNK     0       9.744  21.856  -3.192  1.00 11.69    -0.398 OA
HETATM   66 7HO3 UNK     0       9.929  21.628  -4.107  1.00 11.69     0.209 HD
ENDBRANCH  64  65
ENDBRANCH  30  64
BRANCH  37  67
HETATM   67  C25 UNK     0      10.811  24.880   0.155  1.00  8.76     0.198 C 
BRANCH  67  68
HETATM   68  O38 UNK     0      10.013  25.928  -0.358  1.00 18.55    -0.398 OA
HETATM   69 8HO3 UNK     0       9.376  25.549  -0.970  1.00 18.55     0.209 HD
ENDBRANCH  67  68
ENDBRANCH  37  67
BRANCH  44  70
HETATM   70  C31 UNK     0      10.137  28.486   2.407  1.00  4.34     0.198 C 
BRANCH  70  71
HETATM   71  O29 UNK     0      10.745  28.221   1.158  1.00  4.97    -0.398 OA
HETATM   72 9HO2 UNK     0      10.777  27.269   1.032  1.00  4.97     0.209 HD
ENDBRANCH  70  71
ENDBRANCH  44  70
BRANCH  50  73
HETATM   73  O14 UNK     0       6.373  28.929   6.560  1.00  5.05    -0.388 OA
HETATM   74 4HO1 UNK     0       7.290  28.881   6.843  1.00  5.05     0.210 HD
ENDBRANCH  50  73
BRANCH  47  75
HETATM   75  O13 UNK     0       7.802  26.286   6.278  1.00  6.40    -0.390 OA
HETATM   76 3HO1 UNK     0       6.973  25.798   6.302  1.00  6.40     0.210 HD
ENDBRANCH  47  75
BRANCH  43  77
HETATM   77  O12 UNK     0       9.302  23.901   5.666  1.00  4.90    -0.388 OA
HETATM   78 2HO1 UNK     0       9.646  23.876   6.564  1.00  4.90     0.210 HD
ENDBRANCH  43  77
BRANCH  40  79
HETATM   79  O11 UNK     0       9.578  21.613   3.724  1.00  5.92    -0.390 OA
HETATM   80 1HO1 UNK     0      10.118  20.815   3.712  1.00  5.92     0.210 HD
ENDBRANCH  40  79
BRANCH  36  81
HETATM   81  O10 UNK     0       9.055  19.690   1.636  1.00  5.84    -0.388 OA
HETATM   82 0HO1 UNK     0       9.540  18.987   1.198  1.00  5.84     0.210 HD
ENDBRANCH  36  81
BRANCH  33  83
HETATM   83  O9  UNK     0       6.683  19.168  -0.162  1.00  4.74    -0.390 OA
HETATM   84  HO9 UNK     0       7.586  18.869  -0.318  1.00  4.74     0.210 HD
ENDBRANCH  33  83
BRANCH  29  85
HETATM   85  O8  UNK     0       4.435  19.017  -2.015  1.00  4.18    -0.388 OA
HETATM   86  HO8 UNK     0       4.631  18.263  -1.453  1.00  4.18     0.210 HD
ENDBRANCH  29  85
BRANCH  22  87
HETATM   87  O6  UNK     0      -0.258  22.660  -3.245  1.00  3.87    -0.388 OA
HETATM   88  HO6 UNK     0      -0.920  22.716  -3.942  1.00  3.87     0.210 HD
ENDBRANCH  22  87
BRANCH  15  89
HETATM   89  O4  UNK     0      -1.556  27.378   0.082  1.00  5.05    -0.388 OA
HETATM   90  HO4 UNK     0      -1.593  28.293   0.374  1.00  5.05     0.210 HD
ENDBRANCH  15  89
BRANCH  12  91
HETATM   91  O3  UNK     0      -0.325  29.559   1.999  1.00  3.95    -0.390 OA
HETATM   92  HO3 UNK     0      -0.818  30.168   1.442  1.00  3.95     0.210 HD
ENDBRANCH  12  91
BRANCH   8  93
HETATM   93  O2  UNK     0       1.423  30.901   3.866  1.00  5.92    -0.388 OA
HETATM   94  HO2 UNK     0       1.349  31.795   4.211  1.00  5.92     0.210 HD
ENDBRANCH   8  93
BRANCH   5  95
HETATM   95  C37 UNK     0       6.480  31.078   1.293  1.00  7.90     0.198 C 
BRANCH  95  96
HETATM   96  O30 UNK     0       5.784  32.303   1.414  1.00 12.55    -0.398 OA
HETATM   97 0HO3 UNK     0       6.386  32.958   1.779  1.00 12.55     0.209 HD
ENDBRANCH  95  96
ENDBRANCH   5  95
ENDBRANCH   1   2
END_RES UNK     0
ENDMDL
MODEL 3
REMARK VINA RESULT:    -4.166      1.859      4.972
REMARK INTER + INTRA:         219.405
REMARK INTER:                  -4.992
REMARK INTRA:                 224.397
REMARK UNBOUND:               224.545
REMARK SMILES C=CCc1cc2c(c(OC)c1OC)OCO2
REMARK SMILES IDX 14 1 16 2 4 3 7 4 6 5 11 6 8 7 5 8 15 9 9 10 10 11 12 12
REMARK SMILES IDX 13 13 3 14 2 15 1 16
REMARK H PARENT
REMARK Flexibility Score: inf
ROOT
ATOM      1  O   UNL     1       7.941  27.388  -1.786  1.00  0.00    -0.450 OA
ATOM      2  O   UNL     1       5.970  27.787  -2.941  1.00  0.00    -0.453 OA
ATOM      3  C   UNL     1       7.561  31.058  -3.647  1.00  0.00     0.006 A 
ATOM      4  C   UNL     1       7.963  28.651  -2.335  1.00  0.00     0.211 A 
ATOM      5  C   UNL     1       6.790  28.893  -3.022  1.00  0.00     0.170 A 
ATOM      6  C   UNL     1       8.750  30.813  -2.953  1.00  0.00     0.168 A 
ATOM      7  C   UNL     1       8.968  29.597  -2.264  1.00  0.00     0.207 A 
ATOM      8  C   UNL     1       6.554  30.077  -3.677  1.00  0.00     0.058 A 
ATOM      9  C   UNL     1       6.643  26.854  -2.091  1.00  0.00     0.468 C 
ENDROOT
BRANCH   7  10
ATOM     10  O   UNL     1      10.153  29.386  -1.614  1.00  0.00    -0.490 OA
ATOM     11  C   UNL     1      11.153  28.679  -2.360  1.00  0.00     0.278 C 
ENDBRANCH   7  10
BRANCH   6  12
ATOM     12  O   UNL     1       9.694  31.810  -2.864  1.00  0.00    -0.492 OA
ATOM     13  C   UNL     1       9.721  32.528  -1.623  1.00  0.00     0.278 C 
ENDBRANCH   6  12
BRANCH   3  14
ATOM     14  C   UNL     1       7.344  32.377  -4.364  1.00  0.00     0.066 C 
BRANCH  14  15
ATOM     15  C   UNL     1       6.299  33.245  -3.711  1.00  0.00    -0.030 C 
ATOM     16  C   UNL     1       6.428  33.835  -2.538  1.00  0.00     0.004 C 
ENDBRANCH  14  15
ENDBRANCH   3  14
TORSDOF 4
BEGIN_RES UNK     0
REMARK  28 active torsions:
REMARK  status: ('A' for Active; 'I' for Inactive)
REMARK    1  A    between atoms: O1   and  C40 
REMARK    2  A    between atoms: O2   and  C5  
REMARK    3  A    between atoms: O3   and  C4  
REMARK    4  A    between atoms: O4   and  C11 
REMARK    5  A    between atoms: O5   and  C10 
REMARK    6  A    between atoms: O6   and  C17 
REMARK    7  A    between atoms: O7   and  C16 
REMARK    8  A    between atoms: O8   and  C23 
REMARK    9  A    between atoms: O9   and  C22 
REMARK   10  A    between atoms: O10  and  C29 
REMARK   11  A    between atoms: O11  and  C28 
REMARK   12  A    between atoms: O12  and  C35 
REMARK   13  A    between atoms: O13  and  C34 
REMARK   14  A    between atoms: O14  and  C41 
REMARK   15  A    between atoms: O29  and  C31 
REMARK   16  A    between atoms: O30  and  C37 
REMARK   17  A    between atoms: O31  and  C1  
REMARK   18  A    between atoms: O33  and  C7  
REMARK   19  A    between atoms: O35  and  C13 
REMARK   20  A    between atoms: O37  and  C19 
REMARK   21  A    between atoms: O38  and  C25 
REMARK   22  A    between atoms: C1   and  C2  
REMARK   23  A    between atoms: C7   and  C8  
REMARK   24  A    between atoms: C13  and  C14 
REMARK   25  A    between atoms: C19  and  C20 
REMARK   26  A    between atoms: C25  and  C26 
REMARK   27  A    between atoms: C31  and  C32 
REMARK   28  A    between atoms: C37  and  C38 
ROOT
HETATM    1  O1  UNK     0       3.887  29.858   5.432  1.00  4.97    -0.390 OA
ENDROOT
BRANCH   1   2
HETATM    2  C40 UNK     0       5.006  29.567   4.612  1.00  3.87     0.183 C 
HETATM    3  C39 UNK     0       5.016  30.454   3.354  1.00  5.29     0.187 C 
HETATM    4  O16 UNK     0       3.846  30.142   2.592  1.00  4.82    -0.348 OA
HETATM    5  C38 UNK     0       6.312  30.190   2.543  1.00  4.42     0.180 C 
HETATM    6  C6  UNK     0       3.080  31.209   2.093  1.00  4.58     0.292 C 
HETATM    7  O23 UNK     0       3.218  31.335   0.702  1.00  5.45    -0.348 OA
HETATM    8  C5  UNK     0       1.607  30.973   2.461  1.00  5.13     0.204 C 
HETATM    9  C2  UNK     0       2.797  30.192  -0.058  1.00  4.58     0.180 C 
HETATM   10  C3  UNK     0       1.308  29.842   0.206  1.00  3.24     0.187 C 
HETATM   11  O17 UNK     0       0.972  28.582  -0.387  1.00  5.45    -0.348 OA
HETATM   12  C4  UNK     0       1.054  29.733   1.725  1.00  3.47     0.183 C 
HETATM   13  C12 UNK     0      -0.014  28.569  -1.386  1.00  4.26     0.292 C 
HETATM   14  O24 UNK     0       0.559  28.546  -2.670  1.00  4.74    -0.348 OA
HETATM   15  C11 UNK     0      -0.907  27.336  -1.176  1.00  3.32     0.204 C 
HETATM   16  C8  UNK     0       1.355  27.385  -2.964  1.00  2.92     0.180 C 
HETATM   17  C9  UNK     0       0.550  26.069  -2.802  1.00  3.24     0.187 C 
HETATM   18  C10 UNK     0      -0.113  26.035  -1.412  1.00  3.16     0.183 C 
HETATM   19  O18 UNK     0       1.408  24.929  -2.915  1.00  4.26    -0.348 OA
HETATM   20  C18 UNK     0       1.396  24.219  -4.125  1.00  6.00     0.292 C 
HETATM   21  O25 UNK     0       2.641  24.291  -4.770  1.00  7.26    -0.348 OA
HETATM   22  C17 UNK     0       1.027  22.758  -3.833  1.00  5.53     0.204 C 
HETATM   23  C14 UNK     0       3.741  23.736  -4.032  1.00  7.42     0.180 C 
HETATM   24  C15 UNK     0       3.504  22.237  -3.701  1.00  6.16     0.187 C 
HETATM   25  C16 UNK     0       2.136  22.070  -3.007  1.00  3.63     0.183 C 
HETATM   26  O19 UNK     0       4.518  21.727  -2.826  1.00  4.66    -0.348 OA
HETATM   27  C24 UNK     0       5.430  20.793  -3.352  1.00  5.61     0.292 C 
HETATM   28  O26 UNK     0       6.653  21.399  -3.692  1.00  4.26    -0.348 OA
HETATM   29  C23 UNK     0       5.651  19.679  -2.316  1.00  2.84     0.204 C 
HETATM   30  C20 UNK     0       7.369  21.984  -2.592  1.00 10.11     0.180 C 
HETATM   31  C21 UNK     0       7.685  20.941  -1.492  1.00  3.95     0.187 C 
HETATM   32  O20 UNK     0       8.234  21.573  -0.330  1.00  5.84    -0.348 OA
HETATM   33  C22 UNK     0       6.394  20.216  -1.071  1.00  4.03     0.183 C 
HETATM   34  C30 UNK     0       9.598  21.377  -0.054  1.00  6.95     0.292 C 
HETATM   35  O27 UNK     0      10.339  22.555  -0.258  1.00  5.92    -0.348 OA
HETATM   36  C29 UNK     0       9.747  20.904   1.400  1.00  7.19     0.204 C 
HETATM   37  C26 UNK     0       9.943  23.671   0.557  1.00  5.21     0.180 C 
HETATM   38  C27 UNK     0      10.084  23.328   2.061  1.00  3.95     0.187 C 
HETATM   39  O21 UNK     0       9.510  24.361   2.869  1.00  5.21    -0.348 OA
HETATM   40  C28 UNK     0       9.342  22.018   2.387  1.00  3.47     0.183 C 
HETATM   41  C36 UNK     0      10.350  25.037   3.769  1.00  3.87     0.292 C 
HETATM   42  O28 UNK     0      10.703  26.308   3.280  1.00  4.58    -0.348 OA
HETATM   43  C35 UNK     0       9.626  25.167   5.118  1.00  6.00     0.204 C 
HETATM   44  C32 UNK     0       9.596  27.202   3.069  1.00  4.11     0.180 C 
HETATM   45  C33 UNK     0       8.797  27.442   4.377  1.00  3.40     0.187 C 
HETATM   46  O15 UNK     0       7.592  28.169   4.114  1.00  4.11    -0.348 OA
HETATM   47  C34 UNK     0       8.400  26.096   5.006  1.00  3.16     0.183 C 
HETATM   48  C42 UNK     0       7.544  29.521   4.489  1.00  5.21     0.292 C 
HETATM   49  O22 UNK     0       7.480  30.361   3.362  1.00  5.45    -0.348 OA
HETATM   50  C41 UNK     0       6.323  29.740   5.400  1.00  4.82     0.204 C 
BRANCH   9  51
HETATM   51  C1  UNK     0       3.131  30.469  -1.538  1.00  7.97     0.198 C 
BRANCH  51  52
HETATM   52  O31 UNK     0       3.536  29.296  -2.218  1.00 16.11    -0.398 OA
HETATM   53 1HO3 UNK     0       2.782  28.953  -2.705  1.00 16.11     0.209 HD
ENDBRANCH  51  52
ENDBRANCH   9  51
BRANCH  16  54
HETATM   54  C7  UNK     0       1.997  27.577  -4.356  1.00  4.90     0.198 C 
BRANCH  54  55
HETATM   55  O33 UNK     0       3.360  27.199  -4.375  1.00  5.13    -0.398 OA
HETATM   56 3HO3 UNK     0       3.514  26.640  -5.141  1.00  5.13     0.209 HD
ENDBRANCH  54  55
ENDBRANCH  16  54
BRANCH  18  57
HETATM   57  O5  UNK     0      -0.950  24.900  -1.272  1.00  4.90    -0.390 OA
HETATM   58  HO5 UNK     0      -1.445  24.996  -0.453  1.00  4.90     0.210 HD
ENDBRANCH  18  57
BRANCH  23  59
HETATM   59  C13 UNK     0       5.030  24.024  -4.828  1.00 12.87     0.198 C 
BRANCH  59  60
HETATM   60  O35 UNK     0       5.423  25.380  -4.748  1.00 13.98    -0.398 OA
HETATM   61 5HO3 UNK     0       5.288  25.793  -5.605  1.00 13.98     0.209 HD
ENDBRANCH  59  60
ENDBRANCH  23  59
BRANCH  25  62
HETATM   62  O7  UNK     0       1.831  20.702  -2.802  1.00  4.74    -0.390 OA
HETATM   63  HO7 UNK     0       1.818  20.537  -1.854  1.00  4.74     0.210 HD
ENDBRANCH  25  62
BRANCH  30  64
HETATM   64  C19 UNK     0       8.611  22.700  -3.162  1.00  5.53     0.198 C 
BRANCH  64  65
HETATM   65  O37 UNK     0       8.848  23.941  -2.527  1.00 11.69    -0.398 OA
HETATM   66 7HO3 UNK     0       8.879  23.795  -1.578  1.00 11.69     0.209 HD
ENDBRANCH  64  65
ENDBRANCH  30  64
BRANCH  37  67
HETATM   67  C25 UNK     0      10.811  24.880   0.155  1.00  8.76     0.198 C 
BRANCH  67  68
HETATM   68  O38 UNK     0      10.031  25.877  -0.473  1.00 18.55    -0.398 OA
HETATM   69 8HO3 UNK     0      10.521  26.210  -1.230  1.00 18.55     0.209 HD
ENDBRANCH  67  68
ENDBRANCH  37  67
BRANCH  44  70
HETATM   70  C31 UNK     0      10.137  28.486   2.407  1.00  4.34     0.198 C 
BRANCH  70  71
HETATM   71  O29 UNK     0      10.676  28.233   1.124  1.00  4.97    -0.398 OA
HETATM   72 9HO2 UNK     0       9.993  27.829   0.583  1.00  4.97     0.209 HD
ENDBRANCH  70  71
ENDBRANCH  44  70
BRANCH  50  73
HETATM   73  O14 UNK     0       6.373  28.929   6.560  1.00  5.05    -0.388 OA
HETATM   74 4HO1 UNK     0       6.733  29.463   7.273  1.00  5.05     0.210 HD
ENDBRANCH  50  73
BRANCH  47  75
HETATM   75  O13 UNK     0       7.803  26.287   6.278  1.00  6.40    -0.390 OA
HETATM   76 3HO1 UNK     0       8.237  25.703   6.910  1.00  6.40     0.210 HD
ENDBRANCH  47  75
BRANCH  43  77
HETATM   77  O12 UNK     0       9.302  23.901   5.667  1.00  4.90    -0.388 OA
HETATM   78 2HO1 UNK     0       8.605  24.035   6.315  1.00  4.90     0.210 HD
ENDBRANCH  43  77
BRANCH  40  79
HETATM   79  O11 UNK     0       9.578  21.613   3.725  1.00  5.92    -0.390 OA
HETATM   80 1HO1 UNK     0       8.759  21.710   4.224  1.00  5.92     0.210 HD
ENDBRANCH  40  79
BRANCH  36  81
HETATM   81  O10 UNK     0       9.055  19.690   1.637  1.00  5.84    -0.388 OA
HETATM   82 0HO1 UNK     0       9.573  18.979   1.250  1.00  5.84     0.210 HD
ENDBRANCH  36  81
BRANCH  33  83
HETATM   83  O9  UNK     0       6.684  19.168  -0.162  1.00  4.74    -0.390 OA
HETATM   84  HO9 UNK     0       6.643  18.330  -0.637  1.00  4.74     0.210 HD
ENDBRANCH  33  83
BRANCH  29  85
HETATM   85  O8  UNK     0       4.436  19.016  -2.015  1.00  4.18    -0.388 OA
HETATM   86  HO8 UNK     0       4.640  18.126  -1.716  1.00  4.18     0.210 HD
ENDBRANCH  29  85
BRANCH  22  87
HETATM   87  O6  UNK     0      -0.258  22.660  -3.244  1.00  3.87    -0.388 OA
HETATM   88  HO6 UNK     0      -0.893  23.099  -3.819  1.00  3.87     0.210 HD
ENDBRANCH  22  87
BRANCH  15  89
HETATM   89  O4  UNK     0      -1.556  27.378   0.083  1.00  5.05    -0.388 OA
HETATM   90  HO4 UNK     0      -1.707  26.475   0.376  1.00  5.05     0.210 HD
ENDBRANCH  15  89
BRANCH  12  91
HETATM   91  O3  UNK     0      -0.325  29.559   1.999  1.00  3.95    -0.390 OA
HETATM   92  HO3 UNK     0      -0.441  28.689   2.393  1.00  3.95     0.210 HD
ENDBRANCH  12  91
BRANCH   8  93
HETATM   93  O2  UNK     0       1.423  30.901   3.866  1.00  5.92    -0.388 OA
HETATM   94  HO2 UNK     0       1.484  31.789   4.228  1.00  5.92     0.210 HD
ENDBRANCH   8  93
BRANCH   5  95
HETATM   95  C37 UNK     0       6.480  31.078   1.293  1.00  7.90     0.198 C 
BRANCH  95  96
HETATM   96  O30 UNK     0       5.815  32.319   1.429  1.00 12.55    -0.398 OA
HETATM   97 0HO3 UNK     0       6.465  33.021   1.346  1.00 12.55     0.209 HD
ENDBRANCH  95  96
ENDBRANCH   5  95
ENDBRANCH   1   2
END_RES UNK     0
ENDMDL
